<NUMBER OF ZONES> 4
<NUMBER OF NODES> 10
<FIRST THRU NODE> 1
<NUMBER OF LINKS> 29
<END OF METADATA> 

~	 Init node 	 Term node 	 Capacity 	 Length 	 Free Flow Time 	 B 	 Power 	 Speed limit 	 Toll 	 Link Type 	
	1	1	1000	3.75	0.08333333333333333	0.15	4	45	0	8	;
	1	10	10000	0.0	0.0	0.15	4	500	0	9	;
	2	2	1000	3.75	0.08333333333333333	0.15	4	45	0	8	;
	2	6	10000	0.0	0.0	0.15	4	500	0	9	;
	4	4	1000	3.75	0.08333333333333333	0.15	4	45	0	8	;
	4	5	1200	8.0	0.08	0.15	4	100	0	0	;
	4	7	900	6.0	0.075	0.15	4	80	0	0	;
	4	8	900	6.0	0.075	0.15	4	80	0	0	;
	5	4	1200	8.0	0.08	0.15	4	100	0	0	;
	5	7	600	10.0	0.2	0.15	4	50	0	0	;
	5	8	600	10.0	0.2	0.15	4	50	0	0	;
	5	9	2000	6.0	0.05	0.15	4	120	0	0	;
	3	3	1000	3.75	0.08333333333333333	0.15	4	45	0	8	;
	3	7	10000	0.0	0.0	0.15	4	500	0	9	;
	7	3	10000	0.0	0.0	0.15	4	500	0	0	;
	7	4	900	6.0	0.075	0.15	4	80	0	0	;
	7	5	600	10.0	0.2	0.15	4	50	0	0	;
	8	4	900	6.0	0.075	0.15	4	80	0	0	;
	8	5	600	10.0	0.2	0.15	4	50	0	0	;
	9	10	900	5.0	0.0625	0.15	4	80	0	0	;
	9	5	2000	6.0	0.05	0.15	4	120	0	0	;
	9	6	900	5.0	0.0625	0.15	4	80	0	0	;
	10	1	10000	0.0	0.0	0.15	4	500	0	0	;
	10	9	900	5.0	0.0625	0.15	4	80	0	0	;
	10	6	900	6.0	0.075	0.15	4	80	0	0	;
	10	7	600	18.24828759089466	0.3649657518178932	0.15	4	50	0	1	;
	6	9	900	5.0	0.0625	0.15	4	80	0	0	;
	6	2	10000	0.0	0.0	0.15	4	500	0	0	;
	6	10	900	6.0	0.075	0.15	4	80	0	0	;