<NUMBER OF ZONES> 4
<TOTAL OD FLOW> 10100.0
<END OF METADATA>

Origin 1
  1 :   200.00;  2 :   800.00;  3 :   800.00;  4 :  1000.00;

Origin 2
  1 :   700.00;  2 :   200.00;  3 :   600.00;  4 :   800.00;

Origin 3
  1 :   400.00;  2 :   400.00;  3 :   400.00;  4 :  1000.00;

Origin 4
  1 :   400.00;  2 :   400.00;  3 :  1400.00;  4 :   600.00;